*Heading
** Job name: Bar_Necking Model name: Model-1
** Generated by: Abaqus/CAE 6.14-1
*Preprint, echo=NO, model=NO, history=NO, contact=NO
**
** PARTS
**
*Part, name=Cylinder
*Node
      1,   6.37099981,   5.55499983
      2,           0.,   5.55499983
      3,           0.,  -3.33500004
      4,    6.3499999,  -3.33500004
      5,   6.41300011,   23.3349991
      6,           0.,   23.3349991
      7,   5.73390007,   5.55499983
      8,   5.09679985,   5.55499983
      9,   4.45970011,   5.55499983
     10,   3.82259989,   5.55499983
     11,   3.18549991,   5.55499983
     12,   2.54839993,   5.55499983
     13,   1.91129994,   5.55499983
     14,   1.27419996,   5.55499983
     15,  0.637099981,   5.55499983
     16,           0.,   5.11049986
     17,           0.,   4.66599989
     18,           0.,   4.22149992
     19,           0.,   3.77699995
     20,           0.,   3.33249998
** ... 431 like lines cut
*Element, type=CAX4RT
  1,   1,   7, 110,  62
  2,   7,   8, 111, 110
  3,   8,   9, 112, 111
  4,   9,  10, 113, 112
  5,  10,  11, 114, 113
  6,  11,  12, 115, 114
  7,  12,  13, 116, 115
  8,  13,  14, 117, 116
  9,  14,  15, 118, 117
 10,  15,   2,  16, 118
 11,  62, 110, 119,  61
 12, 110, 111, 120, 119
 13, 111, 112, 121, 120
 14, 112, 113, 122, 121
 15, 113, 114, 123, 122
 16, 114, 115, 124, 123
 17, 115, 116, 125, 124
 18, 116, 117, 126, 125
 19, 117, 118, 127, 126
 20, 118,  16,  17, 127
** ... 380 like lines cut
*Nset, nset=Set-1, generate
   1,  451,    1
*Elset, elset=Set-1, generate
   1,  400,    1
** Section: Section-1
*Solid Section, elset=Set-1, material=Steel

*End Part
**  
**
** ASSEMBLY
**
*Assembly, name=Assembly
**  
*Instance, name=Cylinder-1, part=Cylinder
*End Instance
**  
*Nset, nset=Set-1, instance=Cylinder-1
   2,   3,   6,  16,  17,  18,  19,  20,  21,  22,  23,  24,  25,  26,  27,  28
  29,  30,  31,  32,  33,  34,  91,  92,  93,  94,  95,  96,  97,  98,  99, 100
 101, 102, 103, 104, 105, 106, 107, 108, 109
*Elset, elset=Set-1, instance=Cylinder-1
  10,  20,  30,  40,  50,  60,  70,  80,  90, 100, 110, 120, 130, 140, 150, 160
 170, 180, 190, 200, 201, 211, 221, 231, 241, 251, 261, 271, 281, 291, 301, 311
 321, 331, 341, 351, 361, 371, 381, 391
*Nset, nset=Set-2, instance=Cylinder-1
  3,  4, 35, 36, 37, 38, 39, 40, 41, 42, 43
*Elset, elset=Set-2, instance=Cylinder-1, generate
 191,  200,    1
*Nset, nset=Set-3, instance=Cylinder-1
  5,  6, 82, 83, 84, 85, 86, 87, 88, 89, 90
*Elset, elset=Set-3, instance=Cylinder-1, generate
 391,  400,    1
*End Assembly
*Amplitude, name=Amp-1
 0., 0., 0.01, 1.
** 
** MATERIALS
** 
*Material, name=Steel
*Conductivity
34.0
*Density
 7.83e-09
*Elastic
206000., 0.3
*Expansion
 1.23e-05
*Inelastic Heat Fraction
0.9
*Plastic, hardening=JOHNSON COOK
806.,  614., 0.168,   1.1, 1540.,  20.
*Rate Dependent, type=JOHNSON COOK
 0.0089,1.
*Specific Heat
4.6e+08
** 
** PREDEFINED FIELDS
** 
** Name: Predefined Field-1   Type: Temperature
*Initial Conditions, type=TEMPERATURE
Cylinder-1.Set-1, 20.
** ----------------------------------------------------------------
** 
** STEP: Step-1
** 
*Step, name=Step-1, nlgeom=YES
*Dynamic Temperature-displacement, Explicit
, 0.01
*Bulk Viscosity
0.06, 1.2
** 
** BOUNDARY CONDITIONS
** 
** Name: BC-1 Type: Displacement/Rotation
*Boundary
Set-1, 1, 1
Set-1, 6, 6
** Name: BC-2 Type: Displacement/Rotation
*Boundary
Set-2, 2, 2
Set-2, 6, 6
** Name: BC-3 Type: Displacement/Rotation
*Boundary, amplitude=Amp-1
Set-3, 2, 2, 7.
** 
** OUTPUT REQUESTS
** 
*Restart, write, number interval=1, time marks=NO
** 
** FIELD OUTPUT: F-Output-1
** 
*Output, field
*Node Output
A, RF, U, V
*Element Output, directions=YES
ER, ERV, EVF, LE, PE, PEEQ, PEEQVAVG, PEVAVG, S, SVAVG, TEMP, TEMPMAVG, DENSITY
*Contact Output
CSTRESS, 
** 
** HISTORY OUTPUT: H-Output-1
** 
*Output, history
*Energy Output
ALLAE, ALLCD, ALLDMD, ALLFD, ALLIE, ALLKE, ALLPD, ALLSE, ALLVD, ALLWK, ETOTAL
** 
** HISTORY OUTPUT: H-Output-2
** 
*Output, history, time interval=1e-4
*Element Output, elset=Cylinder-1.Set-1
MISES, PEEQ, TEMP, DENSITY
*Incrementation Output
DT, 
*End Step
