*Heading
** Job name: Bar_Necking Model name: Model-1
** Generated by: Abaqus/CAE 6.14-1
*Preprint, echo=NO, model=NO, history=NO, contact=NO
**
** PARTS
**
*Part, name=Cylinder
*Node
      1,   6.37099981,   5.55499983
      2,           0.,   5.55499983
      3,           0.,  -3.33500004
      4,    6.3499999,  -3.33500004
      5,   6.41300011,   23.3349991
      6,           0.,   23.3349991
      7,   6.05245018,   5.55499983
      8,   5.73390007,   5.55499983
      9,   5.41534996,   5.55499983
     10,   5.09679985,   5.55499983
     11,   4.77825022,   5.55499983
     12,   4.45970011,   5.55499983
     13,      4.14115,   5.55499983
     14,   3.82259989,   5.55499983
     15,   3.50405002,   5.55499983
     16,   3.18549991,   5.55499983
     17,   2.86695004,   5.55499983
     18,   2.54839993,   5.55499983
     19,   2.22985005,   5.55499983
     20,   1.91129994,   5.55499983
** ... 1681 like lines cut
*Element, type=CAX4RT
  1,   1,   7, 220, 122
  2,   7,   8, 221, 220
  3,   8,   9, 222, 221
  4,   9,  10, 223, 222
  5,  10,  11, 224, 223
  6,  11,  12, 225, 224
  7,  12,  13, 226, 225
  8,  13,  14, 227, 226
  9,  14,  15, 228, 227
 10,  15,  16, 229, 228
 11,  16,  17, 230, 229
 12,  17,  18, 231, 230
 13,  18,  19, 232, 231
 14,  19,  20, 233, 232
 15,  20,  21, 234, 233
 16,  21,  22, 235, 234
 17,  22,  23, 236, 235
 18,  23,  24, 237, 236
 19,  24,  25, 238, 237
 20,  25,   2,  26, 238
** ... 1580 like lines cut
*Nset, nset=Set-1, generate
    1,  1701,     1
*Elset, elset=Set-1, generate
    1,  1600,     1
** Section: Section-1
*Solid Section, elset=Set-1, material=Steel
,
*End Part
**  
**
** ASSEMBLY
**
*Assembly, name=Assembly
**  
*Instance, name=Cylinder-1, part=Cylinder
*End Instance
**  
*Nset, nset=Set-1, instance=Cylinder-1
   2,   3,   6,  26,  27,  28,  29,  30,  31,  32,  33,  34,  35,  36,  37,  38
  39,  40,  41,  42,  43,  44,  45,  46,  47,  48,  49,  50,  51,  52,  53,  54
  55,  56,  57,  58,  59,  60,  61,  62,  63,  64, 181, 182, 183, 184, 185, 186
 187, 188, 189, 190, 191, 192, 193, 194, 195, 196, 197, 198, 199, 200, 201, 202
 203, 204, 205, 206, 207, 208, 209, 210, 211, 212, 213, 214, 215, 216, 217, 218
 219,
*Elset, elset=Set-1, instance=Cylinder-1
   20,   40,   60,   80,  100,  120,  140,  160,  180,  200,  220,  240,  260,  280,  300,  320
  340,  360,  380,  400,  420,  440,  460,  480,  500,  520,  540,  560,  580,  600,  620,  640
  660,  680,  700,  720,  740,  760,  780,  800,  801,  821,  841,  861,  881,  901,  921,  941
  961,  981, 1001, 1021, 1041, 1061, 1081, 1101, 1121, 1141, 1161, 1181, 1201, 1221, 1241, 1261
 1281, 1301, 1321, 1341, 1361, 1381, 1401, 1421, 1441, 1461, 1481, 1501, 1521, 1541, 1561, 1581
*Nset, nset=Set-2, instance=Cylinder-1
  3,  4, 65, 66, 67, 68, 69, 70, 71, 72, 73, 74, 75, 76, 77, 78
 79, 80, 81, 82, 83
*Elset, elset=Set-2, instance=Cylinder-1, generate
 781,  800,    1
*Nset, nset=Set-3, instance=Cylinder-1
   5,   6, 162, 163, 164, 165, 166, 167, 168, 169, 170, 171, 172, 173, 174, 175
 176, 177, 178, 179, 180
*Elset, elset=Set-3, instance=Cylinder-1, generate
 1581,  1600,     1
*End Assembly
*Amplitude, name=Amp-1
             0.,              0.,            0.01,              1.
** 
** MATERIALS
** 
*Material, name=Steel
*Conductivity
34.0,
*Density
 7.83e-09,
*Expansion
 1.23e-05,
*Inelastic Heat Fraction
0.9,
*USER MATERIAL,CONSTANTS=14
206000, 0.3, 806, 614, 0.168, 0.0089, 1.1, 1.0
20.0, 1540, 0.9, 7.83e-09, 4.6e+08, 1
*DEPVAR
7
*Specific Heat
4.6e+08,
** 
** PREDEFINED FIELDS
** 
** Name: Predefined Field-1   Type: Temperature
*INITIAL CONDITIONS, TYPE=SOLUTION
Cylinder-1.Set-1, , , , , 20
*Initial Conditions, type=TEMPERATURE
Cylinder-1.Set-1, 20.
** ----------------------------------------------------------------
** 
** STEP: Step-1
** 
*Step, name=Step-1, nlgeom=YES
*Dynamic Temperature-displacement, Explicit
**Dynamic, Explicit, adiabatic
, 0.01
*Bulk Viscosity
0.06, 1.2
** 
** BOUNDARY CONDITIONS
** 
** Name: BC-1 Type: Displacement/Rotation
*Boundary
Set-1, 1, 1
Set-1, 6, 6
** Name: BC-2 Type: Displacement/Rotation
*Boundary
Set-2, 2, 2
Set-2, 6, 6
** Name: BC-3 Type: Displacement/Rotation
*Boundary, amplitude=Amp-1
Set-3, 2, 2, 7.
** 
** OUTPUT REQUESTS
** 
*Restart, write, number interval=1, time marks=NO
** 
** FIELD OUTPUT: F-Output-1
** 
*Output, field
*Node Output
A, RF, U, V
*Element Output, directions=YES
ER, ERV, EVF, LE, PE, SDV1, PEEQVAVG, PEVAVG, S, SVAVG, TEMP, TEMPMAVG, DENSITY
*Contact Output
CSTRESS, 
** 
** HISTORY OUTPUT: H-Output-1
** 
*Output, history
*Energy Output
ALLAE, ALLCD, ALLDMD, ALLFD, ALLIE, ALLKE, ALLPD, ALLSE, ALLVD, ALLWK, ETOTAL
** 
** HISTORY OUTPUT: H-Output-2
** 
*Output, history, time interval=1e-4
*Element Output, elset=Cylinder-1.Set-1
MISES, SDV1, TEMP, DENSITY
*Incrementation Output
DT, 
*End Step
